Test systems/4-VSC/Dynawo/dynaflow-launcher_static/OP1/4vsc_system_OP1_NoTap.iidm
<?xml version="1.0" encoding="UTF-8"?>
<!--
    Copyright (c) 2022, RTE (http://www.rte-france.com)
    See AUTHORS.txt
    All rights reserved.
    This Source Code Form is subject to the terms of the Mozilla Public
    License, v. 2.0. If a copy of the MPL was not distributed with this
    file, you can obtain one at http://mozilla.org/MPL/2.0/.
    SPDX-License-Identifier: MPL-2.0

    This file is part of Dynawo, an hybrid C++/Modelica open source suite of
    simulation tools for power systems.
-->
<iidm:network xmlns:iidm="http://www.powsybl.org/schema/iidm/1_4" id="4-VSC-system" caseDate="2023-08-01T00:00:00+02:00" forecastDistance="0" sourceFormat="Stepss">
    <!-- Substation A: HVDC1 inverter station -->
    <iidm:substation id="_BUS__A_SS" name="BUS A_SS" country="FR" tso="RTE">
        <iidm:voltageLevel id="_BUS__A_VL" name="BUS A_VL" nominalV="400" topologyKind="BUS_BREAKER">
            <iidm:busBreakerTopology>
                <iidm:bus id="_BUS__A_TN" v="406.59412" angle="12.0734801"/> 
            </iidm:busBreakerTopology>
            <iidm:generator id="_GEN__1_HVDC" name="HVDC1" energySource="OTHER" minP="-1200" maxP="1200" voltageRegulatorOn="true" targetP="1144.5" targetV="406.59412" bus="_BUS__A_TN" connectableBus="_BUS__A_TN" p="-1144.5" q="53.7">
                <iidm:minMaxReactiveLimits minQ="-999" maxQ="360"/>
            </iidm:generator>
        </iidm:voltageLevel>
        <iidm:voltageLevel id="_BUS__A2_VL" name="BUS A2_VL" nominalV="225" topologyKind="BUS_BREAKER">
            <iidm:busBreakerTopology>
                <iidm:bus id="_BUS__A2_TN" v="236.4542775" angle="18.59682175"/>
            </iidm:busBreakerTopology>
        </iidm:voltageLevel>
        <iidm:twoWindingsTransformer id="_Tr__A2-A" name="A2-A" r="0.333333333" x="10" g="0.0" b="0.0" ratedU1="225" ratedU2="400" bus1="_BUS__A2_TN" connectableBus1="_BUS__A2_TN" voltageLevelId1="_BUS__A2_VL" bus2="_BUS__A_TN" connectableBus2="_BUS__A_TN" voltageLevelId2="_BUS__A_VL" p1="1962.6" q1="624" p2="-1954.6" q2="-384">
        </iidm:twoWindingsTransformer>
    </iidm:substation>

    <!-- Substation B: HVDC2 inverter station -->
    <iidm:substation id="_BUS__B_SS" name="BUS B_SS" country="FR" tso="RTE">
        <iidm:voltageLevel id="_BUS__B_VL" name="BUS B_VL" nominalV="400" topologyKind="BUS_BREAKER">
            <iidm:busBreakerTopology>
                <iidm:bus id="_BUS__B_TN" v="407.37844" angle="12.41471142"/> 
            </iidm:busBreakerTopology>
            <iidm:generator id="_GEN__2_HVDC" name="HVDC2" energySource="OTHER" minP="-1700" maxP="1700" voltageRegulatorOn="true" targetP="1394.1" targetV="407.37844" bus="_BUS__B_TN" connectableBus="_BUS__B_TN" p="-1394.1" q="-504">
                <iidm:minMaxReactiveLimits minQ="-999" maxQ="504"/>
            </iidm:generator>
        </iidm:voltageLevel>
        <iidm:voltageLevel id="_BUS__B2_VL" name="BUS B2_VL" nominalV="225" topologyKind="BUS_BREAKER">
            <iidm:busBreakerTopology>
                <iidm:bus id="_BUS__B2_TN" v="230.827185" angle="19.13032682"/>
            </iidm:busBreakerTopology>
        </iidm:voltageLevel>
        <iidm:twoWindingsTransformer id="_Tr__B2-B" name="B2-B" r="0.333333333" x="10" g="0.0" b="0.0" ratedU1="225" ratedU2="400" bus1="_BUS__B2_TN" connectableBus1="_BUS__B2_TN" voltageLevelId1="_BUS__B2_VL" bus2="_BUS__B_TN" connectableBus2="_BUS__B_TN" voltageLevelId2="_BUS__B_VL" p1="1960.7" q1="171.7" p2="-1953" q2="58.4">
        </iidm:twoWindingsTransformer>
    </iidm:substation>
      
    <!-- Substation C: Slack -->
    <iidm:substation id="_BUS__C_SS" name="BUS C_SS" country="FR" tso="RTE">
        <iidm:voltageLevel id="_BUS__C_VL" name="BUS C_VL" nominalV="400" topologyKind="BUS_BREAKER">
            <iidm:busBreakerTopology>
                <iidm:bus id="_BUS__C_TN" v="400.22" angle="0.0"/>
            </iidm:busBreakerTopology>
            <!-- <iidm:generator id="_GEN__3_EQUIV" name="Slack" energySource="OTHER" minP="-9999" maxP="9999" voltageRegulatorOn="true" targetP="0" targetV="400.22" bus="_BUS__C_TN" connectableBus="_BUS__C_TN" p="6377.2" q="-38.8">
                <iidm:minMaxReactiveLimits minQ="-9999" maxQ="9999"/>
            </iidm:generator> -->
            <iidm:load id="_LOAD__1" name="Slack" loadType="UNDEFINED" p0="6377.2" q0="-38.8" bus="_BUS__C_TN" connectableBus="_BUS__C_TN" p="6377.2" q="-38.8"/>

            <iidm:shunt id="_SHUNT__C_SS" name="SHUNT F_SS" sectionCount="1" voltageRegulatorOn="false" bus="_BUS__C_TN" connectableBus="_BUS__C_TN" q="400.4">
                <iidm:shuntLinearModel bPerSection="0.0025" maximumSectionCount="1"/>
            </iidm:shunt>
        </iidm:voltageLevel>
    </iidm:substation>

    <!-- Substation E: WP1 -->
    <iidm:substation id="_BUS__E_SS" name="BUS E_SS" country="FR" tso="RTE">
        <iidm:voltageLevel id="_BUS__E_VL" name="BUS E_VL" nominalV="225" topologyKind="BUS_BREAKER">
            <iidm:busBreakerTopology>
                <iidm:bus id="_BUS__E_TN" v="240.457095" angle="20.18737035"/> 
            </iidm:busBreakerTopology>
            <iidm:generator id="_GEN__4_WP1" name="WP1" energySource="OTHER" minP="-2400" maxP="2400" voltageRegulatorOn="false" targetP="1991.6" targetQ="-159.4" bus="_BUS__E_TN" connectableBus="_BUS__E_TN" p="-1991.6" q="159.4">
                <iidm:minMaxReactiveLimits minQ="-999" maxQ="720"/>
            </iidm:generator>
            <iidm:shunt id="_SHUNT__E_SS" name="SHUNT E_SS" sectionCount="1" voltageRegulatorOn="false" bus="_BUS__E_TN" connectableBus="_BUS__E_TN" q="-182.7">
                <iidm:shuntLinearModel bPerSection="-0.003160494" maximumSectionCount="1"/>
            </iidm:shunt>
        </iidm:voltageLevel>
    </iidm:substation> 
    
    <!-- Substation F: WP2 -->
    <iidm:substation id="_BUS__F_SS" name="BUS F_SS" country="FR" tso="RTE">
        <iidm:voltageLevel id="_BUS__F_VL" name="BUS F_VL" nominalV="225" topologyKind="BUS_BREAKER">
            <iidm:busBreakerTopology>
                <iidm:bus id="_BUS__F_TN" v="233.4117825" angle="20.99873933"/> 
            </iidm:busBreakerTopology>
            <iidm:generator id="_GEN__5_WP2" name="WP2" energySource="OTHER" minP="-2400" maxP="2400" voltageRegulatorOn="true" targetP="1991.7" targetV="233.4117825" bus="_BUS__F_TN" connectableBus="_BUS__F_TN" p="-1991.7" q="736.8">
                <iidm:minMaxReactiveLimits minQ="-999" maxQ="720"/>
            </iidm:generator>
        </iidm:voltageLevel>
    </iidm:substation> 

    <!-- Transmission lines -->
    <!-- A-B#1 -->
    <iidm:line id="_Line1__BUS__A-_BUS__B" name="A-B_1" r="0.51" x="10.24" g1="0.0" b1="0.000048" g2="0.0" b2="0.000048" bus1="_BUS__A_TN" connectableBus1="_BUS__A_TN" voltageLevelId1="_BUS__A_VL" bus2="_BUS__B_TN" connectableBus2="_BUS__B_TN" voltageLevelId2="_BUS__B_VL" p1="-97.6" q1="-33.9" p2="97.7" q2="18.7"/>
    <!-- A-B#2 -->
    <iidm:line id="_Line2__BUS__A-_BUS__B" name="A-B_2" r="0.51" x="10.24" g1="0.0" b1="0.000048" g2="0.0" b2="0.000048" bus1="_BUS__A_TN" connectableBus1="_BUS__A_TN" voltageLevelId1="_BUS__A_VL" bus2="_BUS__B_TN" connectableBus2="_BUS__B_TN" voltageLevelId2="_BUS__B_VL" p1="-97.6" q1="-33.9" p2="97.7" q2="18.7"/>
    <!-- A-C#1 -->
    <iidm:line id="_Line3__BUS__A-_BUS__C" name="A-C_1" r="1.04" x="20.8" g1="0.0" b1="0.000098" g2="0.0" b2="0.000098" bus1="_BUS__A_TN" connectableBus1="_BUS__A_TN" voltageLevelId1="_BUS__A_VL" bus2="_BUS__C_TN" connectableBus2="_BUS__C_TN" voltageLevelId2="_BUS__C_VL" p1="1647.2" q1="199.1" p2="-1629.8" q2="116.2"/>
    <!-- A-C#2 -->
    <iidm:line id="_Line4__BUS__A-_BUS__C" name="A-C_2" r="1.04" x="20.8" g1="0.0" b1="0.000098" g2="0.0" b2="0.000098" bus1="_BUS__A_TN" connectableBus1="_BUS__A_TN" voltageLevelId1="_BUS__A_VL" bus2="_BUS__C_TN" connectableBus2="_BUS__C_TN" voltageLevelId2="_BUS__C_VL" p1="1647.2" q1="199.1" p2="-1629.8" q2="116.2"/>
    <!-- B-C#1 -->
    <iidm:line id="_Line5__BUS__B-_BUS__C" name="B-C_1" r="1.12" x="22.4" g1="0.0" b1="0.000105" g2="0.0" b2="0.000105" bus1="_BUS__B_TN" connectableBus1="_BUS__B_TN" voltageLevelId1="_BUS__B_VL" bus2="_BUS__C_TN" connectableBus2="_BUS__C_TN" voltageLevelId2="_BUS__C_VL" p1="1575.9" q1="204.2" p2="-1558.8" q2="103.4"/>
    <!-- B-C#2 -->
    <iidm:line id="_Line6__BUS__B-_BUS__C" name="B-C_2" r="1.12" x="22.4" g1="0.0" b1="0.000105" g2="0.0" b2="0.000105" bus1="_BUS__B_TN" connectableBus1="_BUS__B_TN" voltageLevelId1="_BUS__B_VL" bus2="_BUS__C_TN" connectableBus2="_BUS__C_TN" voltageLevelId2="_BUS__C_VL" p1="1575.9" q1="204.2" p2="-1558.8" q2="103.4"/>
    <!-- A2-E -->
    <iidm:line id="_Line7__BUS__A2-_BUS__E" name="A2-E" r="0.42" x="0.83" g1="0.0" b1="0.009" g2="0.0" b2="0.009" bus1="_BUS__A2_TN" connectableBus1="_BUS__A2_TN" voltageLevelId1="_BUS__A2_VL" bus2="_BUS__E_TN" connectableBus2="_BUS__E_TN" voltageLevelId2="_BUS__E_VL" p1="-1962.6" q1="-624" p2="1991.6" q2="-342.1"/>
    <!-- B2-F -->
    <iidm:line id="_Line8__BUS__B2-_BUS__F" name="B2-F" r="0.42" x="0.83" g1="0.0" b1="0.009" g2="0.0" b2="0.009" bus1="_BUS__B2_TN" connectableBus1="_BUS__B2_TN" voltageLevelId1="_BUS__B2_VL" bus2="_BUS__F_TN" connectableBus2="_BUS__F_TN" voltageLevelId2="_BUS__F_VL" p1="-1960.7" q1="-171.7" p2="1991.7" q2="-736.8"/>

    <iidm:extension id="_BUS__C_VL">
        <!-- <iidm:slackTerminal id="_GEN__3_EQUIV" /> -->
        <iidm:slackTerminal id="_LOAD__1" />
    </iidm:extension>

</iidm:network>